Version 4
SHEET 1 2552 708
WIRE 784 -240 336 -240
WIRE 544 -192 528 -192
WIRE 736 -192 544 -192
WIRE 752 -192 736 -192
WIRE 1008 -192 752 -192
WIRE 544 -160 544 -192
WIRE 736 -160 736 -192
WIRE 528 -112 528 -192
WIRE 544 -112 528 -112
WIRE 752 -112 752 -192
WIRE 752 -112 736 -112
WIRE 640 -80 592 -80
WIRE 688 -80 640 -80
WIRE 544 -48 544 -64
WIRE 544 -48 0 -48
WIRE 544 -32 544 -48
WIRE 544 -32 528 -32
WIRE 736 -32 736 -64
WIRE 752 -32 736 -32
WIRE 784 -32 784 -240
WIRE 784 -32 752 -32
WIRE 544 -16 544 -32
WIRE 736 -16 736 -32
WIRE 528 32 528 -32
WIRE 544 32 528 32
WIRE 752 32 752 -32
WIRE 752 32 736 32
WIRE 688 64 592 64
WIRE 544 112 544 80
WIRE 640 112 640 -80
WIRE 640 112 544 112
WIRE 736 112 736 80
WIRE 896 112 736 112
WIRE 928 112 896 112
WIRE 0 128 0 -48
WIRE 336 128 336 -240
WIRE 336 128 160 128
WIRE 544 128 544 112
WIRE 736 128 736 112
WIRE 16 176 0 176
WIRE 160 176 144 176
WIRE 544 176 528 176
WIRE 752 176 736 176
WIRE -48 208 -80 208
WIRE 240 208 208 208
WIRE 640 208 592 208
WIRE 688 208 640 208
WIRE -80 240 -80 208
WIRE 240 240 240 208
WIRE 528 240 528 176
WIRE 544 240 544 224
WIRE 544 240 528 240
WIRE 736 240 736 224
WIRE 752 240 752 176
WIRE 752 240 736 240
WIRE 0 256 0 224
WIRE 16 256 16 176
WIRE 16 256 0 256
WIRE 80 256 16 256
WIRE 144 256 144 176
WIRE 144 256 80 256
WIRE 160 256 160 224
WIRE 160 256 144 256
WIRE 80 272 80 256
WIRE 544 272 544 240
WIRE 544 272 368 272
WIRE 640 272 640 208
WIRE 640 272 544 272
WIRE 736 272 736 240
WIRE 112 320 80 320
WIRE 560 320 544 320
WIRE 736 320 720 320
WIRE 32 352 0 352
WIRE 0 384 0 352
WIRE 368 400 368 272
WIRE 544 400 544 368
WIRE 560 400 560 320
WIRE 560 400 544 400
WIRE 640 400 560 400
WIRE 720 400 720 320
WIRE 720 400 640 400
WIRE 736 400 736 368
WIRE 736 400 720 400
WIRE 1008 400 1008 -192
WIRE 80 448 80 368
WIRE 112 448 112 320
WIRE 112 448 80 448
WIRE 80 528 80 448
WIRE 384 528 80 528
WIRE 640 528 640 400
WIRE 640 528 384 528
WIRE 384 576 384 528
FLAG 1008 480 0
FLAG 368 480 0
FLAG -80 320 0
FLAG 240 320 0
FLAG 928 176 0
FLAG 896 112 Vo
FLAG 384 576 0
FLAG 0 464 0
SYMBOL voltage 1008 384 R0
WINDOW 123 0 0 Left 2
WINDOW 39 0 0 Left 2
SYMATTR InstName Vdd
SYMATTR Value 1.8
SYMBOL cmosn 496 272 R0
WINDOW 123 -38 48 Left 2
SYMATTR Value2 l=0.18u w=0.45u
SYMATTR InstName M10
SYMBOL cmosn 784 272 M0
WINDOW 123 -89 50 Left 2
SYMATTR Value2 l=0.18u w=0.45u
SYMATTR InstName M11
SYMBOL cmosn 592 128 M0
WINDOW 123 56 96 Left 2
SYMATTR Value2 l=0.18u w=0.45u
SYMATTR InstName M8
SYMBOL cmosn 688 128 R0
WINDOW 123 56 96 Left 2
SYMATTR Value2 l=0.18u w=0.45u
SYMATTR InstName M9
SYMBOL cmosp 688 -16 R0
WINDOW 123 56 56 Left 2
SYMATTR Value2 l=0.18u w=0.45u
SYMATTR InstName M7
SYMBOL cmosp 592 -16 M0
WINDOW 123 56 56 Left 2
SYMATTR Value2 l=0.18u w=0.45u
SYMATTR InstName M6
SYMBOL cmosp 592 -160 M0
WINDOW 123 56 56 Left 2
SYMATTR Value2 l=0.18u w=0.45u
SYMATTR InstName M4
SYMBOL cmosp 688 -160 R0
WINDOW 123 56 56 Left 2
SYMATTR Value2 l=0.18u w=0.45u
SYMATTR InstName M5
SYMBOL voltage 368 384 R0
WINDOW 123 0 0 Left 2
WINDOW 39 0 0 Left 2
SYMATTR InstName VB1
SYMATTR Value 0.18
SYMBOL voltage -80 224 R0
WINDOW 123 24 120 Left 2
WINDOW 39 0 0 Left 2
SYMATTR Value2 AC 1
SYMATTR InstName V1
SYMATTR Value 0.65
SYMBOL voltage 240 224 R0
WINDOW 123 24 120 Left 2
WINDOW 39 0 0 Left 2
SYMATTR Value2 AC -1
SYMATTR InstName V2
SYMATTR Value 0.65
SYMBOL cap 912 112 R0
SYMATTR InstName CL
SYMATTR Value 1p
SYMBOL cmosn -48 128 R0
SYMATTR InstName M1
SYMBOL cmosn 208 128 M0
SYMATTR InstName M2
SYMBOL cmosn 32 272 R0
SYMATTR InstName M11
SYMBOL voltage 0 368 R0
SYMATTR InstName V3
TEXT 456 -320 Left 2 ;OTA2 (Cascode Folded)
TEXT 64 -256 Left 2 !.inc "C:\\Program Files (x86)\\LTC\\LTspiceIV\\lib\\tsmc018.lib"\n.step param VB1 0.18 2\n;.step param W 1u 100u\n;tf v(Vout) Vb1\n;.op\n;.dc Vgs 0 1.8 0.1\n;.tran 2m\n.ac dec 1000 1 30G
